ZMA241385_conf0
     RDKit          3D

  0  0  0  0  0  0  0  0  0  0999 V3000
M  V30 BEGIN CTAB
M  V30 COUNTS 250 2304 0 0 0
M  V30 BEGIN ATOM
M  V30 1 C 0.444000 13.782000 13.482000 0
M  V30 2 C -2.556000 15.025000 16.018000 0
M  V30 3 C -3.045000 13.997000 12.826000 0
M  V30 4 C -0.292000 2.176000 19.024000 0
M  V30 5 C -0.818000 4.773000 18.499000 0
M  V30 6 C -0.429000 15.277000 12.437000 0
M  V30 7 C -1.696000 2.300000 18.782000 0
M  V30 8 C -3.436000 15.270000 12.612000 0
M  V30 9 C 1.506000 14.400000 12.915000 0
M  V30 10 C -2.028000 3.258000 18.631000 0
M  V30 11 C 0.086000 14.096000 14.771000 0
M  V30 12 C -2.770000 15.181000 14.670000 0
M  V30 13 C -3.062000 14.458000 14.120000 0
M  V30 14 C 0.331000 3.372000 19.285000 0
M  V30 15 C 0.141000 5.752000 18.591000 0
M  V30 16 C 0.762000 14.630000 12.660000 0
M  V30 17 C -0.464000 2.847000 19.045000 0
M  V30 18 C -4.791000 15.064000 12.698000 0
M  V30 19 C 1.098000 15.205000 13.951000 0
M  V30 20 C -0.781000 3.685000 19.020000 0
M  V30 21 O -0.901000 13.272000 15.205000 0
M  V30 22 O -3.234000 14.028000 14.124000 0
M  V30 23 O -3.255000 13.434000 14.989000 0
M  V30 24 O -0.442000 4.411000 18.877000 0
M  V30 25 O -0.293000 6.900000 18.011000 0
M  V30 26 O 0.551000 13.440000 13.276000 0
M  V30 27 O -0.426000 4.146000 18.654000 0
M  V30 28 O -5.056000 13.877000 13.299000 0
M  V30 29 O 0.031000 14.659000 14.587000 0
M  V30 30 O -0.573000 4.968000 18.630000 0
M  V30 31 C -1.189000 12.408000 14.184000 0
M  V30 32 C -3.324000 13.107000 15.132000 0
M  V30 33 C -3.365000 12.288000 14.250000 0
M  V30 34 C -1.586000 3.883000 18.344000 0
M  V30 35 C -1.554000 6.665000 17.535000 0
M  V30 36 C -0.799000 13.309000 13.457000 0
M  V30 37 C -1.652000 4.450000 18.129000 0
M  V30 38 C -3.855000 13.301000 13.611000 0
M  V30 39 C -0.260000 13.480000 13.957000 0
M  V30 40 C -1.701000 5.384000 17.977000 0
M  V30 41 C -0.377000 12.694000 13.101000 0
M  V30 42 C -2.913000 13.687000 16.318000 0
M  V30 43 C -3.240000 12.597000 12.907000 0
M  V30 44 C -1.529000 2.503000 18.416000 0
M  V30 45 C -1.913000 5.359000 17.817000 0
M  V30 46 C -1.438000 14.426000 12.951000 0
M  V30 47 C -2.465000 3.332000 18.191000 0
M  V30 48 C -2.830000 14.133000 13.200000 0
M  V30 49 C 0.631000 13.286000 12.917000 0
M  V30 50 C -2.623000 4.353000 17.958000 0
M  V30 51 C -2.272000 11.280000 14.244000 0
M  V30 52 C -3.816000 11.632000 14.955000 0
M  V30 53 C -3.597000 10.858000 14.843000 0
M  V30 54 C -2.764000 4.722000 17.746000 0
M  V30 55 C -2.439000 7.717000 16.787000 0
M  V30 56 C -1.496000 12.082000 14.134000 0
M  V30 57 C -2.058000 5.847000 17.551000 0
M  V30 58 C -3.683000 11.915000 14.318000 0
M  V30 59 C -1.423000 12.513000 14.359000 0
M  V30 60 C -1.902000 6.805000 17.354000 0
M  V30 61 N -2.788000 10.707000 13.142000 0
M  V30 62 N -3.969000 11.057000 13.749000 0
M  V30 63 N -2.664000 10.209000 15.560000 0
M  V30 64 N -4.056000 4.435000 17.989000 0
M  V30 65 N -3.644000 7.417000 16.270000 0
M  V30 66 N -0.952000 11.417000 15.169000 0
M  V30 67 N -1.238000 6.912000 17.582000 0
M  V30 68 N -4.631000 10.961000 14.288000 0
M  V30 69 N -2.714000 12.777000 14.088000 0
M  V30 70 N -3.068000 7.205000 16.816000 0
M  V30 71 N -3.641000 9.834000 13.711000 0
M  V30 72 N -4.393000 9.835000 14.128000 0
M  V30 73 N -3.329000 9.068000 15.828000 0
M  V30 74 N -4.648000 5.413000 17.276000 0
M  V30 75 N -3.981000 8.616000 15.756000 0
M  V30 76 N -1.906000 10.488000 15.374000 0
M  V30 77 N -2.025000 7.828000 16.985000 0
M  V30 78 N -4.020000 10.005000 15.014000 0
M  V30 79 N -3.291000 11.680000 14.618000 0
M  V30 80 N -2.733000 8.453000 16.437000 0
M  V30 81 C -4.470000 8.952000 13.029000 0
M  V30 82 C -4.720000 8.792000 13.270000 0
M  V30 83 C -2.832000 7.995000 16.558000 0
M  V30 84 C -6.019000 5.609000 17.156000 0
M  V30 85 C -5.159000 8.902000 15.078000 0
M  V30 86 C -1.873000 9.497000 16.348000 0
M  V30 87 C -1.683000 9.153000 16.744000 0
M  V30 88 C -4.554000 8.759000 15.321000 0
M  V30 89 C -4.654000 11.410000 14.630000 0
M  V30 90 C -3.575000 9.358000 15.803000 0
M  V30 91 N -5.241000 8.172000 13.722000 0
M  V30 92 N -5.118000 7.671000 13.789000 0
M  V30 93 N -3.596000 6.961000 16.728000 0
M  V30 94 N -6.437000 6.598000 16.428000 0
M  V30 95 N -5.338000 10.110000 14.638000 0
M  V30 96 N -2.871000 8.671000 16.419000 0
M  V30 97 N -2.554000 9.917000 16.159000 0
M  V30 98 N -3.841000 7.944000 16.037000 0
M  V30 99 N -5.057000 10.308000 15.183000 0
M  V30 100 N -3.103000 10.528000 15.497000 0
M  V30 101 C -5.206000 8.246000 15.102000 0
M  V30 102 C -5.198000 7.559000 15.165000 0
M  V30 103 C -4.867000 6.968000 16.183000 0
M  V30 104 C -5.510000 7.413000 15.806000 0
M  V30 105 C -4.357000 11.057000 14.862000 0
M  V30 106 C -3.922000 8.810000 15.531000 0
M  V30 107 C -3.778000 9.384000 15.799000 0
M  V30 108 C -2.587000 8.344000 16.460000 0
M  V30 109 C -4.121000 9.450000 15.732000 0
M  V30 110 C -1.790000 10.825000 15.815000 0
M  V30 111 N -4.443000 9.063000 15.780000 0
M  V30 112 N -4.903000 8.517000 16.004000 0
M  V30 113 N -5.369000 7.955000 15.488000 0
M  V30 114 N -4.214000 7.259000 15.891000 0
M  V30 115 N -3.235000 10.827000 15.492000 0
M  V30 116 N -3.989000 9.726000 14.600000 0
M  V30 117 N -4.139000 8.145000 16.011000 0
M  V30 118 N -2.052000 9.507000 16.196000 0
M  V30 119 N -2.833000 9.670000 15.743000 0
M  V30 120 N -0.967000 10.001000 16.407000 0
M  V30 121 C -3.634000 9.884000 15.070000 0
M  V30 122 C -4.487000 9.692000 15.476000 0
M  V30 123 C -4.582000 9.040000 15.302000 0
M  V30 124 C -3.764000 6.231000 16.647000 0
M  V30 125 C -3.035000 9.571000 15.955000 0
M  V30 126 C -2.954000 10.594000 14.515000 0
M  V30 127 C -3.239000 7.338000 16.621000 0
M  V30 128 C -2.785000 10.367000 15.451000 0
M  V30 129 C -2.398000 10.817000 15.170000 0
M  V30 130 C -1.446000 8.777000 16.731000 0
M  V30 131 N -2.768000 10.801000 15.438000 0
M  V30 132 N -4.124000 10.827000 16.031000 0
M  V30 133 N -4.780000 10.173000 14.665000 0
M  V30 134 N -2.551000 5.812000 16.930000 0
M  V30 135 N -2.037000 9.024000 16.612000 0
M  V30 136 N -2.718000 11.605000 13.709000 0
M  V30 137 N -3.289000 6.072000 16.972000 0
M  V30 138 N -2.544000 11.586000 15.021000 0
M  V30 139 N -1.195000 11.325000 15.020000 0
M  V30 140 N -0.890000 7.741000 17.318000 0
M  V30 141 N -6.017000 7.424000 15.819000 0
M  V30 142 N -5.615000 6.381000 15.699000 0
M  V30 143 N -5.660000 5.880000 16.367000 0
M  V30 144 N -5.958000 8.446000 15.045000 0
M  V30 145 N -4.554000 12.320000 14.398000 0
M  V30 146 N -4.963000 7.940000 15.614000 0
M  V30 147 N -4.684000 10.191000 15.187000 0
M  V30 148 N -1.848000 7.483000 17.209000 0
M  V30 149 N -4.554000 8.298000 16.308000 0
M  V30 150 N -1.305000 12.053000 15.491000 0
M  V30 151 C -5.626000 6.621000 16.956000 0
M  V30 152 C -4.802000 5.204000 15.905000 0
M  V30 153 C -5.324000 4.699000 17.131000 0
M  V30 154 C -5.143000 9.479000 14.445000 0
M  V30 155 C -4.564000 12.726000 13.011000 0
M  V30 156 C -5.068000 6.820000 16.521000 0
M  V30 157 C -4.493000 10.894000 13.938000 0
M  V30 158 C -1.480000 6.134000 16.842000 0
M  V30 159 C -5.006000 7.114000 15.612000 0
M  V30 160 C -0.312000 12.337000 14.479000 0
M  V30 161 C -4.805000 5.398000 16.532000 0
M  V30 162 C -4.353000 5.072000 17.365000 0
M  V30 163 C -4.461000 3.725000 16.322000 0
M  V30 164 C -5.205000 10.787000 15.241000 0
M  V30 165 C -3.351000 12.179000 12.250000 0
M  V30 166 C -4.850000 5.483000 15.803000 0
M  V30 167 C -4.566000 12.414000 14.124000 0
M  V30 168 C -1.963000 5.112000 17.876000 0
M  V30 169 C -5.232000 5.941000 16.573000 0
M  V30 170 C -0.910000 12.295000 13.068000 0
M  V30 171 C -3.460000 5.323000 17.220000 0
M  V30 172 C -2.909000 5.465000 17.577000 0
M  V30 173 C -3.187000 3.332000 17.036000 0
M  V30 174 C -3.865000 11.480000 15.343000 0
M  V30 175 C -2.076000 12.933000 12.550000 0
M  V30 176 C -3.758000 4.647000 16.432000 0
M  V30 177 C -3.272000 13.009000 14.634000 0
M  V30 178 C -3.271000 4.457000 17.494000 0
M  V30 179 C -4.101000 4.938000 16.556000 0
M  V30 180 C -2.193000 13.087000 12.947000 0
M  V30 181 C -3.097000 4.182000 17.951000 0
M  V30 182 C -2.436000 6.708000 17.129000 0
M  V30 183 C -2.233000 2.526000 16.397000 0
M  V30 184 C -2.848000 11.202000 14.417000 0
M  V30 185 C -0.858000 12.249000 12.683000 0
M  V30 186 C -3.537000 3.329000 16.005000 0
M  V30 187 C -3.151000 13.406000 15.974000 0
M  V30 188 C -4.493000 5.028000 17.881000 0
M  V30 189 C -2.856000 5.259000 17.119000 0
M  V30 190 C -2.184000 14.483000 13.088000 0
M  V30 191 C -1.847000 4.105000 18.571000 0
M  V30 192 C -1.106000 7.079000 17.341000 0
M  V30 193 C -1.048000 2.178000 17.051000 0
M  V30 194 C -1.616000 11.857000 14.500000 0
M  V30 195 C 0.323000 12.948000 12.942000 0
M  V30 196 C -2.516000 2.562000 16.573000 0
M  V30 197 C -1.950000 13.939000 16.449000 0
M  V30 198 C -5.701000 4.433000 17.511000 0
M  V30 199 C -1.817000 4.325000 17.120000 0
M  V30 200 C -3.366000 15.215000 12.957000 0
M  V30 201 C -0.959000 5.169000 18.455000 0
M  V30 202 C -0.250000 6.207000 18.005000 0
M  V30 203 C -0.817000 2.640000 18.343000 0
M  V30 204 C -1.404000 12.792000 15.507000 0
M  V30 205 C 0.287000 14.333000 13.064000 0
M  V30 206 C -1.715000 3.116000 17.566000 0
M  V30 207 C -0.870000 14.071000 15.584000 0
M  V30 208 C -5.687000 3.268000 16.751000 0
M  V30 209 C -2.025000 3.068000 16.560000 0
M  V30 210 C -4.557000 14.551000 12.681000 0
M  V30 211 C -1.299000 6.305000 17.731000 0
M  V30 212 C -0.701000 4.975000 18.460000 0
M  V30 213 C -1.748000 3.442000 18.989000 0
M  V30 214 C -2.401000 13.084000 16.429000 0
M  V30 215 C -0.908000 15.028000 12.930000 0
M  V30 216 C -1.917000 4.421000 17.997000 0
M  V30 217 C -0.970000 13.680000 14.255000 0
M  V30 218 C -4.487000 2.691000 16.355000 0
M  V30 219 C -3.251000 2.732000 16.002000 0
M  V30 220 C -4.583000 13.171000 12.533000 0
M  V30 221 C -2.548000 6.383000 17.113000 0
M  V30 222 C -2.029000 4.603000 18.247000 0
M  V30 223 C -2.933000 3.789000 18.337000 0
M  V30 224 C -3.631000 12.429000 16.348000 0
M  V30 225 C -2.089000 14.330000 12.673000 0
M  V30 226 C -2.937000 5.186000 17.432000 0
M  V30 227 C -2.170000 13.149000 13.779000 0
M  V30 228 C -3.280000 3.284000 16.725000 0
M  V30 229 C -4.289000 3.665000 15.999000 0
M  V30 230 C -3.403000 12.438000 12.665000 0
M  V30 231 O 0.271000 5.136000 19.043000 0
M  V30 232 O 1.056000 6.530000 18.234000 0
M  V30 233 O 0.326000 2.324000 19.017000 0
M  V30 234 O -0.218000 13.455000 15.624000 0
M  V30 235 O 1.417000 15.054000 13.316000 0
M  V30 236 O -0.707000 2.403000 18.146000 0
M  V30 237 O 0.321000 14.586000 16.006000 0
M  V30 238 O -6.844000 2.654000 16.368000 0
M  V30 239 O -1.038000 2.127000 16.540000 0
M  V30 240 O -5.733000 15.228000 12.544000 0
M  V30 241 N -4.447000 8.938000 11.663000 0
M  V30 242 N -4.614000 8.981000 11.921000 0
M  V30 243 N -1.565000 8.065000 17.066000 0
M  V30 244 N -6.872000 4.760000 17.803000 0
M  V30 245 N -6.081000 7.910000 14.897000 0
M  V30 246 N -0.798000 9.425000 17.189000 0
M  V30 247 N -0.452000 9.604000 17.130000 0
M  V30 248 N -5.801000 8.438000 14.864000 0
M  V30 249 N -5.516000 12.308000 14.066000 0
M  V30 250 N -4.861000 8.989000 15.523000 0
M  V30 END ATOM
M  V30 BEGIN BOND
M  V30 1 1 181 171
M  V30 2 1 191 181
M  V30 3 1 201 191
M  V30 4 1 211 201
M  V30 5 1 221 171
M  V30 6 1 221 211
M  V30 7 1 161 171
M  V30 8 1 151 161
M  V30 9 1 141 151
M  V30 10 1 61 51
M  V30 11 1 71 61
M  V30 12 1 81 71
M  V30 13 1 91 81
M  V30 14 1 101 141
M  V30 15 1 101 91
M  V30 16 1 111 101
M  V30 17 1 121 111
M  V30 18 1 121 71
M  V30 19 1 131 121
M  V30 20 1 131 51
M  V30 21 1 11 1
M  V30 22 1 21 11
M  V30 23 1 31 21
M  V30 24 1 31 51
M  V30 25 1 41 31
M  V30 26 1 41 1
M  V30 27 1 241 81
M  V30 28 1 231 201
M  V30 29 1 172 181
M  V30 30 1 172 171
M  V30 31 1 172 221
M  V30 32 1 182 171
M  V30 33 1 182 172
M  V30 34 1 182 211
M  V30 35 1 192 182
M  V30 36 1 192 221
M  V30 37 1 192 211
M  V30 38 1 202 231
M  V30 39 1 202 201
M  V30 40 1 202 192
M  V30 41 1 202 211
M  V30 42 1 212 231
M  V30 43 1 212 191
M  V30 44 1 212 202
M  V30 45 1 212 211
M  V30 46 1 222 212
M  V30 47 1 222 201
M  V30 48 1 222 191
M  V30 49 1 222 181
M  V30 50 1 222 172
M  V30 51 1 162 161
M  V30 52 1 162 181
M  V30 53 1 162 171
M  V30 54 1 162 172
M  V30 55 1 152 162
M  V30 56 1 152 161
M  V30 57 1 142 141
M  V30 58 1 142 151
M  V30 59 1 142 152
M  V30 60 1 142 161
M  V30 61 1 52 131
M  V30 62 1 52 121
M  V30 63 1 52 51
M  V30 64 1 62 121
M  V30 65 1 62 71
M  V30 66 1 62 61
M  V30 67 1 62 52
M  V30 68 1 62 51
M  V30 69 1 72 121
M  V30 70 1 72 81
M  V30 71 1 72 71
M  V30 72 1 72 62
M  V30 73 1 82 72
M  V30 74 1 82 241
M  V30 75 1 82 91
M  V30 76 1 82 71
M  V30 77 1 92 82
M  V30 78 1 92 101
M  V30 79 1 92 91
M  V30 80 1 92 81
M  V30 81 1 102 142
M  V30 82 1 102 141
M  V30 83 1 102 92
M  V30 84 1 102 111
M  V30 85 1 102 101
M  V30 86 1 102 91
M  V30 87 1 112 141
M  V30 88 1 112 102
M  V30 89 1 112 111
M  V30 90 1 112 101
M  V30 91 1 122 112
M  V30 92 1 122 72
M  V30 93 1 122 121
M  V30 94 1 122 111
M  V30 95 1 122 101
M  V30 96 1 132 122
M  V30 97 1 132 131
M  V30 98 1 132 121
M  V30 99 1 132 52
M  V30 100 1 12 2
M  V30 101 1 22 12
M  V30 102 1 32 22
M  V30 103 1 32 52
M  V30 104 1 42 32
M  V30 105 1 42 2
M  V30 106 1 242 82
M  V30 107 1 242 81
M  V30 108 1 232 231
M  V30 109 1 232 202
M  V30 110 1 173 181
M  V30 111 1 183 173
M  V30 112 1 193 183
M  V30 113 1 203 193
M  V30 114 1 203 191
M  V30 115 1 213 203
M  V30 116 1 213 222
M  V30 117 1 213 191
M  V30 118 1 223 213
M  V30 119 1 223 173
M  V30 120 1 223 222
M  V30 121 1 223 191
M  V30 122 1 223 181
M  V30 123 1 163 152
M  V30 124 1 163 173
M  V30 125 1 163 162
M  V30 126 1 163 161
M  V30 127 1 153 163
M  V30 128 1 153 152
M  V30 129 1 153 162
M  V30 130 1 153 161
M  V30 131 1 143 142
M  V30 132 1 143 141
M  V30 133 1 143 151
M  V30 134 1 143 152
M  V30 135 1 143 153
M  V30 136 1 143 161
M  V30 137 1 53 132
M  V30 138 1 53 122
M  V30 139 1 53 72
M  V30 140 1 53 131
M  V30 141 1 53 121
M  V30 142 1 53 71
M  V30 143 1 53 62
M  V30 144 1 53 52
M  V30 145 1 53 51
M  V30 146 1 63 53
M  V30 147 1 63 132
M  V30 148 1 63 131
M  V30 149 1 63 121
M  V30 150 1 63 51
M  V30 151 1 73 63
M  V30 152 1 73 122
M  V30 153 1 73 112
M  V30 154 1 73 121
M  V30 155 1 73 111
M  V30 156 1 83 73
M  V30 157 1 83 182
M  V30 158 1 83 221
M  V30 159 1 93 171
M  V30 160 1 93 83
M  V30 161 1 93 182
M  V30 162 1 93 221
M  V30 163 1 103 142
M  V30 164 1 103 141
M  V30 165 1 103 143
M  V30 166 1 103 151
M  V30 167 1 103 152
M  V30 168 1 103 161
M  V30 169 1 103 112
M  V30 170 1 103 102
M  V30 171 1 103 101
M  V30 172 1 103 93
M  V30 173 1 113 142
M  V30 174 1 113 141
M  V30 175 1 113 103
M  V30 176 1 113 112
M  V30 177 1 113 102
M  V30 178 1 113 92
M  V30 179 1 113 111
M  V30 180 1 113 101
M  V30 181 1 113 91
M  V30 182 1 123 113
M  V30 183 1 123 73
M  V30 184 1 123 122
M  V30 185 1 123 112
M  V30 186 1 123 102
M  V30 187 1 123 72
M  V30 188 1 123 121
M  V30 189 1 123 111
M  V30 190 1 123 101
M  V30 191 1 133 123
M  V30 192 1 133 53
M  V30 193 1 133 132
M  V30 194 1 133 122
M  V30 195 1 133 72
M  V30 196 1 133 121
M  V30 197 1 133 111
M  V30 198 1 133 71
M  V30 199 1 133 62
M  V30 200 1 133 52
M  V30 201 1 3 22
M  V30 202 1 13 3
M  V30 203 1 13 32
M  V30 204 1 13 22
M  V30 205 1 13 12
M  V30 206 1 23 13
M  V30 207 1 23 42
M  V30 208 1 23 22
M  V30 209 1 33 53
M  V30 210 1 33 23
M  V30 211 1 33 32
M  V30 212 1 33 22
M  V30 213 1 33 62
M  V30 214 1 33 52
M  V30 215 1 33 51
M  V30 216 1 43 33
M  V30 217 1 43 3
M  V30 218 1 243 83
M  V30 219 1 243 192
M  V30 220 1 243 182
M  V30 221 1 233 203
M  V30 222 1 174 133
M  V30 223 1 174 63
M  V30 224 1 174 53
M  V30 225 1 174 132
M  V30 226 1 174 131
M  V30 227 1 174 121
M  V30 228 1 174 33
M  V30 229 1 174 32
M  V30 230 1 174 62
M  V30 231 1 174 52
M  V30 232 1 184 63
M  V30 233 1 184 53
M  V30 234 1 184 131
M  V30 235 1 184 121
M  V30 236 1 184 71
M  V30 237 1 184 61
M  V30 238 1 184 174
M  V30 239 1 184 33
M  V30 240 1 184 62
M  V30 241 1 184 52
M  V30 242 1 184 51
M  V30 243 1 194 184
M  V30 244 1 194 31
M  V30 245 1 194 21
M  V30 246 1 194 51
M  V30 247 1 204 194
M  V30 248 1 204 31
M  V30 249 1 204 21
M  V30 250 1 214 204
M  V30 251 1 214 23
M  V30 252 1 214 42
M  V30 253 1 214 32
M  V30 254 1 224 132
M  V30 255 1 224 174
M  V30 256 1 224 23
M  V30 257 1 224 42
M  V30 258 1 224 32
M  V30 259 1 224 52
M  V30 260 1 224 214
M  V30 261 1 164 133
M  V30 262 1 164 53
M  V30 263 1 164 132
M  V30 264 1 164 122
M  V30 265 1 164 72
M  V30 266 1 164 174
M  V30 267 1 164 52
M  V30 268 1 154 164
M  V30 269 1 154 133
M  V30 270 1 154 123
M  V30 271 1 154 122
M  V30 272 1 154 82
M  V30 273 1 154 72
M  V30 274 1 154 121
M  V30 275 1 154 111
M  V30 276 1 154 101
M  V30 277 1 154 91
M  V30 278 1 154 81
M  V30 279 1 154 71
M  V30 280 1 144 141
M  V30 281 1 144 154
M  V30 282 1 144 123
M  V30 283 1 144 113
M  V30 284 1 144 112
M  V30 285 1 144 102
M  V30 286 1 144 92
M  V30 287 1 144 111
M  V30 288 1 144 101
M  V30 289 1 144 91
M  V30 290 1 54 223
M  V30 291 1 54 173
M  V30 292 1 54 162
M  V30 293 1 54 222
M  V30 294 1 54 191
M  V30 295 1 54 181
M  V30 296 1 54 171
M  V30 297 1 54 172
M  V30 298 1 54 221
M  V30 299 1 64 54
M  V30 300 1 64 153
M  V30 301 1 64 223
M  V30 302 1 64 173
M  V30 303 1 64 162
M  V30 304 1 64 181
M  V30 305 1 64 171
M  V30 306 1 64 172
M  V30 307 1 74 143
M  V30 308 1 74 151
M  V30 309 1 74 152
M  V30 310 1 74 64
M  V30 311 1 74 153
M  V30 312 1 74 162
M  V30 313 1 74 161
M  V30 314 1 74 171
M  V30 315 1 74 172
M  V30 316 1 84 142
M  V30 317 1 84 143
M  V30 318 1 84 151
M  V30 319 1 84 152
M  V30 320 1 84 74
M  V30 321 1 84 153
M  V30 322 1 84 162
M  V30 323 1 84 161
M  V30 324 1 94 142
M  V30 325 1 94 141
M  V30 326 1 94 84
M  V30 327 1 94 143
M  V30 328 1 94 151
M  V30 329 1 94 103
M  V30 330 1 104 144
M  V30 331 1 104 142
M  V30 332 1 104 141
M  V30 333 1 104 94
M  V30 334 1 104 143
M  V30 335 1 104 151
M  V30 336 1 104 113
M  V30 337 1 104 103
M  V30 338 1 104 112
M  V30 339 1 104 102
M  V30 340 1 104 101
M  V30 341 1 114 104
M  V30 342 1 114 142
M  V30 343 1 114 113
M  V30 344 1 114 103
M  V30 345 1 114 112
M  V30 346 1 114 102
M  V30 347 1 114 101
M  V30 348 1 114 93
M  V30 349 1 114 83
M  V30 350 1 124 152
M  V30 351 1 124 74
M  V30 352 1 124 162
M  V30 353 1 124 161
M  V30 354 1 124 171
M  V30 355 1 124 114
M  V30 356 1 124 103
M  V30 357 1 124 93
M  V30 358 1 124 182
M  V30 359 1 124 172
M  V30 360 1 124 221
M  V30 361 1 134 54
M  V30 362 1 134 171
M  V30 363 1 134 124
M  V30 364 1 134 93
M  V30 365 1 134 182
M  V30 366 1 134 172
M  V30 367 1 134 221
M  V30 368 1 134 211
M  V30 369 1 4 233
M  V30 370 1 4 203
M  V30 371 1 14 4
M  V30 372 1 14 233
M  V30 373 1 14 203
M  V30 374 1 14 231
M  V30 375 1 24 14
M  V30 376 1 24 213
M  V30 377 1 24 222
M  V30 378 1 24 212
M  V30 379 1 24 231
M  V30 380 1 24 201
M  V30 381 1 24 191
M  V30 382 1 34 24
M  V30 383 1 34 54
M  V30 384 1 34 223
M  V30 385 1 34 213
M  V30 386 1 34 203
M  V30 387 1 34 222
M  V30 388 1 34 212
M  V30 389 1 34 201
M  V30 390 1 34 191
M  V30 391 1 34 181
M  V30 392 1 44 34
M  V30 393 1 44 4
M  V30 394 1 44 213
M  V30 395 1 44 203
M  V30 396 1 44 193
M  V30 397 1 44 191
M  V30 398 1 244 84
M  V30 399 1 244 153
M  V30 400 1 234 204
M  V30 401 1 234 21
M  V30 402 1 234 11
M  V30 403 1 175 43
M  V30 404 1 175 3
M  V30 405 1 175 41
M  V30 406 1 185 175
M  V30 407 1 185 41
M  V30 408 1 185 31
M  V30 409 1 195 185
M  V30 410 1 195 41
M  V30 411 1 195 1
M  V30 412 1 205 195
M  V30 413 1 205 41
M  V30 414 1 205 11
M  V30 415 1 205 1
M  V30 416 1 215 205
M  V30 417 1 225 215
M  V30 418 1 225 175
M  V30 419 1 225 13
M  V30 420 1 225 3
M  V30 421 1 165 175
M  V30 422 1 165 43
M  V30 423 1 155 165
M  V30 424 1 155 43
M  V30 425 1 155 33
M  V30 426 1 145 53
M  V30 427 1 145 155
M  V30 428 1 145 174
M  V30 429 1 145 33
M  V30 430 1 145 32
M  V30 431 1 145 62
M  V30 432 1 145 52
M  V30 433 1 55 243
M  V30 434 1 55 93
M  V30 435 1 55 83
M  V30 436 1 55 192
M  V30 437 1 55 182
M  V30 438 1 55 221
M  V30 439 1 65 114
M  V30 440 1 65 103
M  V30 441 1 65 73
M  V30 442 1 65 112
M  V30 443 1 65 55
M  V30 444 1 65 124
M  V30 445 1 65 93
M  V30 446 1 65 83
M  V30 447 1 65 182
M  V30 448 1 65 221
M  V30 449 1 75 65
M  V30 450 1 75 114
M  V30 451 1 75 123
M  V30 452 1 75 113
M  V30 453 1 75 73
M  V30 454 1 75 122
M  V30 455 1 75 112
M  V30 456 1 75 102
M  V30 457 1 75 121
M  V30 458 1 75 111
M  V30 459 1 75 101
M  V30 460 1 75 83
M  V30 461 1 85 104
M  V30 462 1 85 144
M  V30 463 1 85 75
M  V30 464 1 85 154
M  V30 465 1 85 133
M  V30 466 1 85 123
M  V30 467 1 85 113
M  V30 468 1 85 122
M  V30 469 1 85 112
M  V30 470 1 85 102
M  V30 471 1 85 92
M  V30 472 1 85 72
M  V30 473 1 85 111
M  V30 474 1 85 101
M  V30 475 1 85 91
M  V30 476 1 95 85
M  V30 477 1 95 154
M  V30 478 1 95 164
M  V30 479 1 95 133
M  V30 480 1 95 123
M  V30 481 1 95 122
M  V30 482 1 95 72
M  V30 483 1 95 121
M  V30 484 1 95 111
M  V30 485 1 105 95
M  V30 486 1 105 164
M  V30 487 1 105 133
M  V30 488 1 105 53
M  V30 489 1 105 132
M  V30 490 1 105 122
M  V30 491 1 105 72
M  V30 492 1 105 131
M  V30 493 1 105 121
M  V30 494 1 105 145
M  V30 495 1 105 184
M  V30 496 1 105 174
M  V30 497 1 105 33
M  V30 498 1 105 62
M  V30 499 1 105 52
M  V30 500 1 115 73
M  V30 501 1 115 63
M  V30 502 1 115 53
M  V30 503 1 115 132
M  V30 504 1 115 122
M  V30 505 1 115 131
M  V30 506 1 115 121
M  V30 507 1 115 105
M  V30 508 1 115 184
M  V30 509 1 115 174
M  V30 510 1 115 52
M  V30 511 1 115 51
M  V30 512 1 125 115
M  V30 513 1 125 75
M  V30 514 1 125 123
M  V30 515 1 125 73
M  V30 516 1 125 63
M  V30 517 1 125 53
M  V30 518 1 125 132
M  V30 519 1 125 122
M  V30 520 1 125 131
M  V30 521 1 125 121
M  V30 522 1 125 111
M  V30 523 1 125 83
M  V30 524 1 135 125
M  V30 525 1 135 73
M  V30 526 1 135 63
M  V30 527 1 135 55
M  V30 528 1 135 243
M  V30 529 1 135 83
M  V30 530 1 5 34
M  V30 531 1 5 24
M  V30 532 1 5 213
M  V30 533 1 5 222
M  V30 534 1 5 231
M  V30 535 1 5 201
M  V30 536 1 5 191
M  V30 537 1 5 202
M  V30 538 1 5 211
M  V30 539 1 15 5
M  V30 540 1 15 24
M  V30 541 1 15 212
M  V30 542 1 15 231
M  V30 543 1 15 201
M  V30 544 1 15 232
M  V30 545 1 15 202
M  V30 546 1 15 211
M  V30 547 1 25 15
M  V30 548 1 25 232
M  V30 549 1 25 202
M  V30 550 1 25 192
M  V30 551 1 25 211
M  V30 552 1 35 25
M  V30 553 1 35 55
M  V30 554 1 35 134
M  V30 555 1 35 243
M  V30 556 1 35 202
M  V30 557 1 35 192
M  V30 558 1 35 182
M  V30 559 1 35 221
M  V30 560 1 35 211
M  V30 561 1 45 5
M  V30 562 1 45 34
M  V30 563 1 45 54
M  V30 564 1 45 222
M  V30 565 1 45 212
M  V30 566 1 45 201
M  V30 567 1 45 191
M  V30 568 1 45 181
M  V30 569 1 45 171
M  V30 570 1 45 35
M  V30 571 1 45 134
M  V30 572 1 45 182
M  V30 573 1 45 172
M  V30 574 1 45 221
M  V30 575 1 45 211
M  V30 576 1 245 104
M  V30 577 1 245 144
M  V30 578 1 245 142
M  V30 579 1 245 141
M  V30 580 1 245 85
M  V30 581 1 245 113
M  V30 582 1 245 112
M  V30 583 1 245 102
M  V30 584 1 245 92
M  V30 585 1 245 101
M  V30 586 1 245 91
M  V30 587 1 235 205
M  V30 588 1 235 1
M  V30 589 1 176 163
M  V30 590 1 176 152
M  V30 591 1 176 74
M  V30 592 1 176 64
M  V30 593 1 176 54
M  V30 594 1 176 153
M  V30 595 1 176 173
M  V30 596 1 176 162
M  V30 597 1 176 161
M  V30 598 1 176 181
M  V30 599 1 176 171
M  V30 600 1 176 134
M  V30 601 1 176 124
M  V30 602 1 176 172
M  V30 603 1 186 163
M  V30 604 1 186 176
M  V30 605 1 186 183
M  V30 606 1 186 173
M  V30 607 1 196 186
M  V30 608 1 196 193
M  V30 609 1 196 173
M  V30 610 1 206 196
M  V30 611 1 206 44
M  V30 612 1 206 34
M  V30 613 1 206 223
M  V30 614 1 206 213
M  V30 615 1 206 203
M  V30 616 1 206 193
M  V30 617 1 206 183
M  V30 618 1 206 173
M  V30 619 1 206 222
M  V30 620 1 206 191
M  V30 621 1 206 181
M  V30 622 1 216 206
M  V30 623 1 216 45
M  V30 624 1 216 5
M  V30 625 1 216 34
M  V30 626 1 216 24
M  V30 627 1 216 54
M  V30 628 1 216 223
M  V30 629 1 216 213
M  V30 630 1 216 212
M  V30 631 1 216 201
M  V30 632 1 216 191
M  V30 633 1 216 181
M  V30 634 1 216 172
M  V30 635 1 226 216
M  V30 636 1 226 176
M  V30 637 1 226 45
M  V30 638 1 226 74
M  V30 639 1 226 64
M  V30 640 1 226 54
M  V30 641 1 226 223
M  V30 642 1 226 162
M  V30 643 1 226 222
M  V30 644 1 226 181
M  V30 645 1 226 171
M  V30 646 1 226 134
M  V30 647 1 226 124
M  V30 648 1 226 182
M  V30 649 1 226 221
M  V30 650 1 166 142
M  V30 651 1 166 84
M  V30 652 1 166 143
M  V30 653 1 166 151
M  V30 654 1 166 176
M  V30 655 1 166 74
M  V30 656 1 166 153
M  V30 657 1 166 162
M  V30 658 1 166 161
M  V30 659 1 166 103
M  V30 660 1 166 124
M  V30 661 1 156 104
M  V30 662 1 156 142
M  V30 663 1 156 141
M  V30 664 1 156 94
M  V30 665 1 156 84
M  V30 666 1 156 143
M  V30 667 1 156 151
M  V30 668 1 156 152
M  V30 669 1 156 74
M  V30 670 1 156 161
M  V30 671 1 156 166
M  V30 672 1 156 65
M  V30 673 1 156 114
M  V30 674 1 156 113
M  V30 675 1 156 103
M  V30 676 1 156 112
M  V30 677 1 156 102
M  V30 678 1 156 124
M  V30 679 1 156 93
M  V30 680 1 146 245
M  V30 681 1 146 104
M  V30 682 1 146 144
M  V30 683 1 146 142
M  V30 684 1 146 141
M  V30 685 1 146 85
M  V30 686 1 146 75
M  V30 687 1 146 65
M  V30 688 1 146 114
M  V30 689 1 146 123
M  V30 690 1 146 113
M  V30 691 1 146 103
M  V30 692 1 146 112
M  V30 693 1 146 102
M  V30 694 1 146 111
M  V30 695 1 146 101
M  V30 696 1 146 156
M  V30 697 1 56 185
M  V30 698 1 56 204
M  V30 699 1 56 194
M  V30 700 1 56 184
M  V30 701 1 56 41
M  V30 702 1 56 31
M  V30 703 1 56 21
M  V30 704 1 56 51
M  V30 705 1 66 56
M  V30 706 1 66 204
M  V30 707 1 66 194
M  V30 708 1 66 31
M  V30 709 1 66 51
M  V30 710 1 76 125
M  V30 711 1 76 115
M  V30 712 1 76 63
M  V30 713 1 76 131
M  V30 714 1 76 66
M  V30 715 1 76 194
M  V30 716 1 76 184
M  V30 717 1 76 51
M  V30 718 1 86 76
M  V30 719 1 86 125
M  V30 720 1 86 73
M  V30 721 1 86 63
M  V30 722 1 86 135
M  V30 723 1 86 243
M  V30 724 1 86 83
M  V30 725 1 96 86
M  V30 726 1 96 125
M  V30 727 1 96 75
M  V30 728 1 96 65
M  V30 729 1 96 73
M  V30 730 1 96 63
M  V30 731 1 96 111
M  V30 732 1 96 135
M  V30 733 1 96 55
M  V30 734 1 96 243
M  V30 735 1 96 83
M  V30 736 1 106 146
M  V30 737 1 106 125
M  V30 738 1 106 85
M  V30 739 1 106 65
M  V30 740 1 106 114
M  V30 741 1 106 154
M  V30 742 1 106 123
M  V30 743 1 106 113
M  V30 744 1 106 73
M  V30 745 1 106 122
M  V30 746 1 106 112
M  V30 747 1 106 72
M  V30 748 1 106 121
M  V30 749 1 106 111
M  V30 750 1 106 101
M  V30 751 1 106 96
M  V30 752 1 106 83
M  V30 753 1 116 106
M  V30 754 1 116 125
M  V30 755 1 116 115
M  V30 756 1 116 95
M  V30 757 1 116 85
M  V30 758 1 116 75
M  V30 759 1 116 154
M  V30 760 1 116 164
M  V30 761 1 116 133
M  V30 762 1 116 123
M  V30 763 1 116 73
M  V30 764 1 116 63
M  V30 765 1 116 53
M  V30 766 1 116 122
M  V30 767 1 116 82
M  V30 768 1 116 72
M  V30 769 1 116 121
M  V30 770 1 116 111
M  V30 771 1 116 71
M  V30 772 1 116 105
M  V30 773 1 116 62
M  V30 774 1 126 116
M  V30 775 1 126 76
M  V30 776 1 126 125
M  V30 777 1 126 115
M  V30 778 1 126 63
M  V30 779 1 126 53
M  V30 780 1 126 72
M  V30 781 1 126 131
M  V30 782 1 126 121
M  V30 783 1 126 71
M  V30 784 1 126 61
M  V30 785 1 126 105
M  V30 786 1 126 184
M  V30 787 1 126 174
M  V30 788 1 126 33
M  V30 789 1 126 62
M  V30 790 1 126 52
M  V30 791 1 126 51
M  V30 792 1 136 126
M  V30 793 1 136 53
M  V30 794 1 136 61
M  V30 795 1 136 56
M  V30 796 1 136 165
M  V30 797 1 136 194
M  V30 798 1 136 184
M  V30 799 1 136 43
M  V30 800 1 136 33
M  V30 801 1 136 62
M  V30 802 1 136 52
M  V30 803 1 136 31
M  V30 804 1 136 51
M  V30 805 1 6 215
M  V30 806 1 6 205
M  V30 807 1 16 6
M  V30 808 1 16 235
M  V30 809 1 16 215
M  V30 810 1 16 205
M  V30 811 1 16 195
M  V30 812 1 16 1
M  V30 813 1 26 16
M  V30 814 1 26 205
M  V30 815 1 26 195
M  V30 816 1 26 41
M  V30 817 1 26 11
M  V30 818 1 26 1
M  V30 819 1 36 26
M  V30 820 1 36 56
M  V30 821 1 36 215
M  V30 822 1 36 205
M  V30 823 1 36 195
M  V30 824 1 36 185
M  V30 825 1 36 175
M  V30 826 1 36 41
M  V30 827 1 36 31
M  V30 828 1 36 21
M  V30 829 1 36 11
M  V30 830 1 36 1
M  V30 831 1 46 36
M  V30 832 1 46 6
M  V30 833 1 46 225
M  V30 834 1 46 215
M  V30 835 1 46 205
M  V30 836 1 46 175
M  V30 837 1 46 3
M  V30 838 1 246 86
M  V30 839 1 246 135
M  V30 840 1 246 243
M  V30 841 1 236 206
M  V30 842 1 236 44
M  V30 843 1 236 34
M  V30 844 1 236 4
M  V30 845 1 236 233
M  V30 846 1 236 213
M  V30 847 1 236 193
M  V30 848 1 177 136
M  V30 849 1 177 145
M  V30 850 1 177 174
M  V30 851 1 177 43
M  V30 852 1 177 33
M  V30 853 1 177 23
M  V30 854 1 177 13
M  V30 855 1 177 32
M  V30 856 1 177 22
M  V30 857 1 177 52
M  V30 858 1 187 177
M  V30 859 1 187 224
M  V30 860 1 187 23
M  V30 861 1 187 42
M  V30 862 1 187 32
M  V30 863 1 187 2
M  V30 864 1 187 214
M  V30 865 1 197 187
M  V30 866 1 197 204
M  V30 867 1 197 42
M  V30 868 1 197 2
M  V30 869 1 197 21
M  V30 870 1 197 214
M  V30 871 1 207 234
M  V30 872 1 207 204
M  V30 873 1 207 21
M  V30 874 1 207 11
M  V30 875 1 207 197
M  V30 876 1 217 207
M  V30 877 1 217 46
M  V30 878 1 217 36
M  V30 879 1 217 56
M  V30 880 1 217 234
M  V30 881 1 217 204
M  V30 882 1 217 41
M  V30 883 1 217 31
M  V30 884 1 217 21
M  V30 885 1 217 11
M  V30 886 1 217 1
M  V30 887 1 227 217
M  V30 888 1 227 177
M  V30 889 1 227 46
M  V30 890 1 227 36
M  V30 891 1 227 136
M  V30 892 1 227 56
M  V30 893 1 227 225
M  V30 894 1 227 175
M  V30 895 1 227 194
M  V30 896 1 227 43
M  V30 897 1 227 33
M  V30 898 1 227 23
M  V30 899 1 227 13
M  V30 900 1 227 3
M  V30 901 1 227 32
M  V30 902 1 227 22
M  V30 903 1 227 31
M  V30 904 1 167 177
M  V30 905 1 167 105
M  V30 906 1 167 155
M  V30 907 1 167 174
M  V30 908 1 167 43
M  V30 909 1 167 33
M  V30 910 1 167 32
M  V30 911 1 167 62
M  V30 912 1 167 52
M  V30 913 1 157 126
M  V30 914 1 157 116
M  V30 915 1 157 95
M  V30 916 1 157 154
M  V30 917 1 157 164
M  V30 918 1 157 133
M  V30 919 1 157 53
M  V30 920 1 157 72
M  V30 921 1 157 121
M  V30 922 1 157 71
M  V30 923 1 157 167
M  V30 924 1 157 105
M  V30 925 1 157 145
M  V30 926 1 157 184
M  V30 927 1 157 174
M  V30 928 1 157 62
M  V30 929 1 157 52
M  V30 930 1 147 157
M  V30 931 1 147 116
M  V30 932 1 147 106
M  V30 933 1 147 115
M  V30 934 1 147 95
M  V30 935 1 147 85
M  V30 936 1 147 154
M  V30 937 1 147 164
M  V30 938 1 147 133
M  V30 939 1 147 123
M  V30 940 1 147 53
M  V30 941 1 147 132
M  V30 942 1 147 122
M  V30 943 1 147 72
M  V30 944 1 147 121
M  V30 945 1 147 111
M  V30 946 1 147 105
M  V30 947 1 147 174
M  V30 948 1 147 52
M  V30 949 1 57 226
M  V30 950 1 57 216
M  V30 951 1 57 45
M  V30 952 1 57 54
M  V30 953 1 57 222
M  V30 954 1 57 201
M  V30 955 1 57 171
M  V30 956 1 57 35
M  V30 957 1 57 134
M  V30 958 1 57 192
M  V30 959 1 57 182
M  V30 960 1 57 172
M  V30 961 1 57 221
M  V30 962 1 57 211
M  V30 963 1 67 45
M  V30 964 1 67 57
M  V30 965 1 67 35
M  V30 966 1 67 25
M  V30 967 1 67 55
M  V30 968 1 67 243
M  V30 969 1 67 202
M  V30 970 1 67 182
M  V30 971 1 67 221
M  V30 972 1 67 211
M  V30 973 1 77 86
M  V30 974 1 77 67
M  V30 975 1 77 96
M  V30 976 1 77 35
M  V30 977 1 77 135
M  V30 978 1 77 55
M  V30 979 1 77 243
M  V30 980 1 77 83
M  V30 981 1 77 192
M  V30 982 1 77 182
M  V30 983 1 77 221
M  V30 984 1 87 86
M  V30 985 1 87 125
M  V30 986 1 87 77
M  V30 987 1 87 246
M  V30 988 1 87 96
M  V30 989 1 87 55
M  V30 990 1 87 243
M  V30 991 1 87 83
M  V30 992 1 97 86
M  V30 993 1 97 76
M  V30 994 1 97 125
M  V30 995 1 97 115
M  V30 996 1 97 73
M  V30 997 1 97 63
M  V30 998 1 97 131
M  V30 999 1 97 121
M  V30 1000 1 97 87
M  V30 1001 1 97 96
M  V30 1002 1 97 135
M  V30 1003 1 107 97
M  V30 1004 1 107 147
M  V30 1005 1 107 116
M  V30 1006 1 107 106
M  V30 1007 1 107 125
M  V30 1008 1 107 115
M  V30 1009 1 107 85
M  V30 1010 1 107 75
M  V30 1011 1 107 133
M  V30 1012 1 107 123
M  V30 1013 1 107 73
M  V30 1014 1 107 63
M  V30 1015 1 107 53
M  V30 1016 1 107 132
M  V30 1017 1 107 122
M  V30 1018 1 107 112
M  V30 1019 1 107 131
M  V30 1020 1 107 121
M  V30 1021 1 107 111
M  V30 1022 1 107 96
M  V30 1023 1 117 104
M  V30 1024 1 117 107
M  V30 1025 1 117 106
M  V30 1026 1 117 146
M  V30 1027 1 117 125
M  V30 1028 1 117 85
M  V30 1029 1 117 75
M  V30 1030 1 117 65
M  V30 1031 1 117 114
M  V30 1032 1 117 123
M  V30 1033 1 117 113
M  V30 1034 1 117 103
M  V30 1035 1 117 73
M  V30 1036 1 117 122
M  V30 1037 1 117 112
M  V30 1038 1 117 102
M  V30 1039 1 117 111
M  V30 1040 1 117 101
M  V30 1041 1 117 96
M  V30 1042 1 117 156
M  V30 1043 1 117 93
M  V30 1044 1 117 83
M  V30 1045 1 127 117
M  V30 1046 1 127 75
M  V30 1047 1 127 65
M  V30 1048 1 127 114
M  V30 1049 1 127 103
M  V30 1050 1 127 77
M  V30 1051 1 127 96
M  V30 1052 1 127 55
M  V30 1053 1 127 134
M  V30 1054 1 127 124
M  V30 1055 1 127 93
M  V30 1056 1 127 83
M  V30 1057 1 127 182
M  V30 1058 1 127 221
M  V30 1059 1 137 226
M  V30 1060 1 137 176
M  V30 1061 1 137 45
M  V30 1062 1 137 74
M  V30 1063 1 137 54
M  V30 1064 1 137 162
M  V30 1065 1 137 161
M  V30 1066 1 137 171
M  V30 1067 1 137 65
M  V30 1068 1 137 127
M  V30 1069 1 137 57
M  V30 1070 1 137 134
M  V30 1071 1 137 124
M  V30 1072 1 137 93
M  V30 1073 1 137 182
M  V30 1074 1 137 172
M  V30 1075 1 137 221
M  V30 1076 1 7 236
M  V30 1077 1 7 206
M  V30 1078 1 7 44
M  V30 1079 1 7 34
M  V30 1080 1 7 4
M  V30 1081 1 7 213
M  V30 1082 1 7 203
M  V30 1083 1 17 7
M  V30 1084 1 17 236
M  V30 1085 1 17 44
M  V30 1086 1 17 34
M  V30 1087 1 17 24
M  V30 1088 1 17 14
M  V30 1089 1 17 4
M  V30 1090 1 17 233
M  V30 1091 1 17 213
M  V30 1092 1 17 203
M  V30 1093 1 27 17
M  V30 1094 1 27 216
M  V30 1095 1 27 5
M  V30 1096 1 27 34
M  V30 1097 1 27 14
M  V30 1098 1 27 213
M  V30 1099 1 27 203
M  V30 1100 1 27 222
M  V30 1101 1 27 212
M  V30 1102 1 27 231
M  V30 1103 1 27 201
M  V30 1104 1 27 191
M  V30 1105 1 27 15
M  V30 1106 1 37 27
M  V30 1107 1 37 226
M  V30 1108 1 37 206
M  V30 1109 1 37 45
M  V30 1110 1 37 5
M  V30 1111 1 37 34
M  V30 1112 1 37 24
M  V30 1113 1 37 54
M  V30 1114 1 37 223
M  V30 1115 1 37 213
M  V30 1116 1 37 222
M  V30 1117 1 37 212
M  V30 1118 1 37 201
M  V30 1119 1 37 191
M  V30 1120 1 37 181
M  V30 1121 1 37 57
M  V30 1122 1 37 172
M  V30 1123 1 47 37
M  V30 1124 1 47 7
M  V30 1125 1 47 216
M  V30 1126 1 47 206
M  V30 1127 1 47 196
M  V30 1128 1 47 44
M  V30 1129 1 47 34
M  V30 1130 1 47 54
M  V30 1131 1 47 223
M  V30 1132 1 47 213
M  V30 1133 1 47 203
M  V30 1134 1 47 173
M  V30 1135 1 47 222
M  V30 1136 1 47 191
M  V30 1137 1 47 181
M  V30 1138 1 247 86
M  V30 1139 1 247 87
M  V30 1140 1 247 135
M  V30 1141 1 237 207
M  V30 1142 1 237 234
M  V30 1143 1 237 11
M  V30 1144 1 178 47
M  V30 1145 1 178 37
M  V30 1146 1 178 226
M  V30 1147 1 178 216
M  V30 1148 1 178 176
M  V30 1149 1 178 45
M  V30 1150 1 178 74
M  V30 1151 1 178 64
M  V30 1152 1 178 54
M  V30 1153 1 178 223
M  V30 1154 1 178 173
M  V30 1155 1 178 162
M  V30 1156 1 178 222
M  V30 1157 1 178 181
M  V30 1158 1 178 171
M  V30 1159 1 178 137
M  V30 1160 1 178 134
M  V30 1161 1 178 172
M  V30 1162 1 188 84
M  V30 1163 1 188 178
M  V30 1164 1 188 226
M  V30 1165 1 188 176
M  V30 1166 1 188 74
M  V30 1167 1 188 64
M  V30 1168 1 188 54
M  V30 1169 1 188 153
M  V30 1170 1 188 162
M  V30 1171 1 188 161
M  V30 1172 1 188 181
M  V30 1173 1 188 171
M  V30 1174 1 188 172
M  V30 1175 1 198 244
M  V30 1176 1 198 84
M  V30 1177 1 198 188
M  V30 1178 1 198 74
M  V30 1179 1 198 64
M  V30 1180 1 198 153
M  V30 1181 1 198 162
M  V30 1182 1 198 161
M  V30 1183 1 208 198
M  V30 1184 1 208 163
M  V30 1185 1 208 153
M  V30 1186 1 218 208
M  V30 1187 1 218 186
M  V30 1188 1 218 163
M  V30 1189 1 218 173
M  V30 1190 1 228 186
M  V30 1191 1 228 163
M  V30 1192 1 228 218
M  V30 1193 1 228 178
M  V30 1194 1 228 47
M  V30 1195 1 228 206
M  V30 1196 1 228 196
M  V30 1197 1 228 176
M  V30 1198 1 228 223
M  V30 1199 1 228 183
M  V30 1200 1 228 181
M  V30 1201 1 168 178
M  V30 1202 1 168 37
M  V30 1203 1 168 226
M  V30 1204 1 168 216
M  V30 1205 1 168 5
M  V30 1206 1 168 34
M  V30 1207 1 168 54
M  V30 1208 1 168 223
M  V30 1209 1 168 222
M  V30 1210 1 168 212
M  V30 1211 1 168 201
M  V30 1212 1 168 191
M  V30 1213 1 168 181
M  V30 1214 1 168 171
M  V30 1215 1 168 57
M  V30 1216 1 168 35
M  V30 1217 1 168 134
M  V30 1218 1 168 172
M  V30 1219 1 168 221
M  V30 1220 1 168 211
M  V30 1221 1 158 168
M  V30 1222 1 158 45
M  V30 1223 1 158 77
M  V30 1224 1 158 67
M  V30 1225 1 158 57
M  V30 1226 1 158 35
M  V30 1227 1 158 134
M  V30 1228 1 158 202
M  V30 1229 1 158 192
M  V30 1230 1 158 182
M  V30 1231 1 158 172
M  V30 1232 1 158 221
M  V30 1233 1 158 211
M  V30 1234 1 148 158
M  V30 1235 1 148 127
M  V30 1236 1 148 87
M  V30 1237 1 148 77
M  V30 1238 1 148 67
M  V30 1239 1 148 57
M  V30 1240 1 148 96
M  V30 1241 1 148 35
M  V30 1242 1 148 135
M  V30 1243 1 148 55
M  V30 1244 1 148 243
M  V30 1245 1 148 83
M  V30 1246 1 148 192
M  V30 1247 1 148 182
M  V30 1248 1 148 221
M  V30 1249 1 148 211
M  V30 1250 1 58 157
M  V30 1251 1 58 126
M  V30 1252 1 58 115
M  V30 1253 1 58 53
M  V30 1254 1 58 167
M  V30 1255 1 58 177
M  V30 1256 1 58 136
M  V30 1257 1 58 105
M  V30 1258 1 58 145
M  V30 1259 1 58 155
M  V30 1260 1 58 184
M  V30 1261 1 58 174
M  V30 1262 1 58 43
M  V30 1263 1 58 33
M  V30 1264 1 58 23
M  V30 1265 1 58 32
M  V30 1266 1 58 62
M  V30 1267 1 58 52
M  V30 1268 1 58 51
M  V30 1269 1 68 147
M  V30 1270 1 68 126
M  V30 1271 1 68 116
M  V30 1272 1 68 95
M  V30 1273 1 68 154
M  V30 1274 1 68 164
M  V30 1275 1 68 133
M  V30 1276 1 68 53
M  V30 1277 1 68 122
M  V30 1278 1 68 72
M  V30 1279 1 68 121
M  V30 1280 1 68 71
M  V30 1281 1 68 58
M  V30 1282 1 68 167
M  V30 1283 1 68 105
M  V30 1284 1 68 145
M  V30 1285 1 68 184
M  V30 1286 1 68 174
M  V30 1287 1 68 62
M  V30 1288 1 68 52
M  V30 1289 1 78 107
M  V30 1290 1 78 147
M  V30 1291 1 78 157
M  V30 1292 1 78 126
M  V30 1293 1 78 116
M  V30 1294 1 78 106
M  V30 1295 1 78 125
M  V30 1296 1 78 115
M  V30 1297 1 78 95
M  V30 1298 1 78 85
M  V30 1299 1 78 75
M  V30 1300 1 78 154
M  V30 1301 1 78 164
M  V30 1302 1 78 133
M  V30 1303 1 78 123
M  V30 1304 1 78 73
M  V30 1305 1 78 63
M  V30 1306 1 78 53
M  V30 1307 1 78 132
M  V30 1308 1 78 122
M  V30 1309 1 78 72
M  V30 1310 1 78 131
M  V30 1311 1 78 121
M  V30 1312 1 78 111
M  V30 1313 1 78 71
M  V30 1314 1 78 68
M  V30 1315 1 78 105
M  V30 1316 1 78 184
M  V30 1317 1 78 174
M  V30 1318 1 78 62
M  V30 1319 1 78 52
M  V30 1320 1 88 245
M  V30 1321 1 88 104
M  V30 1322 1 88 144
M  V30 1323 1 88 78
M  V30 1324 1 88 117
M  V30 1325 1 88 107
M  V30 1326 1 88 147
M  V30 1327 1 88 116
M  V30 1328 1 88 106
M  V30 1329 1 88 146
M  V30 1330 1 88 95
M  V30 1331 1 88 85
M  V30 1332 1 88 75
M  V30 1333 1 88 114
M  V30 1334 1 88 154
M  V30 1335 1 88 133
M  V30 1336 1 88 113
M  V30 1337 1 88 73
M  V30 1338 1 88 122
M  V30 1339 1 88 112
M  V30 1340 1 88 102
M  V30 1341 1 88 72
M  V30 1342 1 88 121
M  V30 1343 1 88 111
M  V30 1344 1 88 101
M  V30 1345 1 98 104
M  V30 1346 1 98 88
M  V30 1347 1 98 107
M  V30 1348 1 98 106
M  V30 1349 1 98 146
M  V30 1350 1 98 75
M  V30 1351 1 98 65
M  V30 1352 1 98 114
M  V30 1353 1 98 123
M  V30 1354 1 98 113
M  V30 1355 1 98 103
M  V30 1356 1 98 73
M  V30 1357 1 98 112
M  V30 1358 1 98 102
M  V30 1359 1 98 111
M  V30 1360 1 98 101
M  V30 1361 1 98 127
M  V30 1362 1 98 96
M  V30 1363 1 98 156
M  V30 1364 1 98 55
M  V30 1365 1 98 93
M  V30 1366 1 98 83
M  V30 1367 1 108 98
M  V30 1368 1 108 117
M  V30 1369 1 108 107
M  V30 1370 1 108 97
M  V30 1371 1 108 106
M  V30 1372 1 108 86
M  V30 1373 1 108 125
M  V30 1374 1 108 75
M  V30 1375 1 108 65
M  V30 1376 1 108 73
M  V30 1377 1 108 148
M  V30 1378 1 108 127
M  V30 1379 1 108 87
M  V30 1380 1 108 77
M  V30 1381 1 108 96
M  V30 1382 1 108 135
M  V30 1383 1 108 55
M  V30 1384 1 108 243
M  V30 1385 1 108 93
M  V30 1386 1 108 83
M  V30 1387 1 108 182
M  V30 1388 1 118 107
M  V30 1389 1 118 97
M  V30 1390 1 118 76
M  V30 1391 1 118 125
M  V30 1392 1 118 73
M  V30 1393 1 118 63
M  V30 1394 1 118 131
M  V30 1395 1 118 108
M  V30 1396 1 118 87
M  V30 1397 1 118 246
M  V30 1398 1 118 96
M  V30 1399 1 118 135
M  V30 1400 1 118 243
M  V30 1401 1 118 83
M  V30 1402 1 128 118
M  V30 1403 1 128 78
M  V30 1404 1 128 107
M  V30 1405 1 128 97
M  V30 1406 1 128 126
M  V30 1407 1 128 116
M  V30 1408 1 128 86
M  V30 1409 1 128 76
M  V30 1410 1 128 125
M  V30 1411 1 128 115
M  V30 1412 1 128 73
M  V30 1413 1 128 53
M  V30 1414 1 128 132
M  V30 1415 1 128 131
M  V30 1416 1 128 121
M  V30 1417 1 128 184
M  V30 1418 1 128 174
M  V30 1419 1 128 52
M  V30 1420 1 128 51
M  V30 1421 1 138 128
M  V30 1422 1 138 126
M  V30 1423 1 138 76
M  V30 1424 1 138 115
M  V30 1425 1 138 63
M  V30 1426 1 138 53
M  V30 1427 1 138 131
M  V30 1428 1 138 58
M  V30 1429 1 138 177
M  V30 1430 1 138 136
M  V30 1431 1 138 66
M  V30 1432 1 138 56
M  V30 1433 1 138 204
M  V30 1434 1 138 194
M  V30 1435 1 138 184
M  V30 1436 1 138 174
M  V30 1437 1 138 33
M  V30 1438 1 138 32
M  V30 1439 1 138 52
M  V30 1440 1 138 31
M  V30 1441 1 138 51
M  V30 1442 1 8 225
M  V30 1443 1 8 13
M  V30 1444 1 8 3
M  V30 1445 1 18 8
M  V30 1446 1 28 18
M  V30 1447 1 28 167
M  V30 1448 1 28 155
M  V30 1449 1 38 28
M  V30 1450 1 38 58
M  V30 1451 1 38 167
M  V30 1452 1 38 227
M  V30 1453 1 38 177
M  V30 1454 1 38 145
M  V30 1455 1 38 155
M  V30 1456 1 38 43
M  V30 1457 1 38 33
M  V30 1458 1 38 23
M  V30 1459 1 38 13
M  V30 1460 1 38 3
M  V30 1461 1 38 32
M  V30 1462 1 38 22
M  V30 1463 1 48 38
M  V30 1464 1 48 8
M  V30 1465 1 48 227
M  V30 1466 1 48 46
M  V30 1467 1 48 225
M  V30 1468 1 48 175
M  V30 1469 1 48 43
M  V30 1470 1 48 13
M  V30 1471 1 48 3
M  V30 1472 1 48 22
M  V30 1473 1 48 12
M  V30 1474 1 248 245
M  V30 1475 1 248 104
M  V30 1476 1 248 141
M  V30 1477 1 248 88
M  V30 1478 1 248 146
M  V30 1479 1 248 95
M  V30 1480 1 248 85
M  V30 1481 1 248 154
M  V30 1482 1 248 123
M  V30 1483 1 248 113
M  V30 1484 1 248 112
M  V30 1485 1 248 102
M  V30 1486 1 248 92
M  V30 1487 1 248 111
M  V30 1488 1 248 101
M  V30 1489 1 248 91
M  V30 1490 1 238 208
M  V30 1491 1 179 186
M  V30 1492 1 179 163
M  V30 1493 1 179 152
M  V30 1494 1 179 188
M  V30 1495 1 179 178
M  V30 1496 1 179 226
M  V30 1497 1 179 176
M  V30 1498 1 179 74
M  V30 1499 1 179 64
M  V30 1500 1 179 54
M  V30 1501 1 179 153
M  V30 1502 1 179 162
M  V30 1503 1 179 161
M  V30 1504 1 179 171
M  V30 1505 1 179 166
M  V30 1506 1 179 137
M  V30 1507 1 179 124
M  V30 1508 1 179 172
M  V30 1509 1 189 179
M  V30 1510 1 189 168
M  V30 1511 1 189 178
M  V30 1512 1 189 37
M  V30 1513 1 189 216
M  V30 1514 1 189 176
M  V30 1515 1 189 45
M  V30 1516 1 189 74
M  V30 1517 1 189 64
M  V30 1518 1 189 54
M  V30 1519 1 189 162
M  V30 1520 1 189 222
M  V30 1521 1 189 181
M  V30 1522 1 189 171
M  V30 1523 1 189 158
M  V30 1524 1 189 137
M  V30 1525 1 189 57
M  V30 1526 1 189 134
M  V30 1527 1 189 124
M  V30 1528 1 189 182
M  V30 1529 1 189 172
M  V30 1530 1 189 221
M  V30 1531 1 199 189
M  V30 1532 1 199 168
M  V30 1533 1 199 178
M  V30 1534 1 199 47
M  V30 1535 1 199 37
M  V30 1536 1 199 226
M  V30 1537 1 199 216
M  V30 1538 1 199 206
M  V30 1539 1 199 45
M  V30 1540 1 199 5
M  V30 1541 1 199 34
M  V30 1542 1 199 54
M  V30 1543 1 199 223
M  V30 1544 1 199 173
M  V30 1545 1 199 222
M  V30 1546 1 199 201
M  V30 1547 1 199 191
M  V30 1548 1 199 181
M  V30 1549 1 199 57
M  V30 1550 1 199 134
M  V30 1551 1 199 172
M  V30 1552 1 209 186
M  V30 1553 1 209 199
M  V30 1554 1 209 228
M  V30 1555 1 209 47
M  V30 1556 1 209 206
M  V30 1557 1 209 196
M  V30 1558 1 209 193
M  V30 1559 1 209 183
M  V30 1560 1 209 173
M  V30 1561 1 219 186
M  V30 1562 1 219 163
M  V30 1563 1 219 209
M  V30 1564 1 219 228
M  V30 1565 1 219 218
M  V30 1566 1 219 196
M  V30 1567 1 219 183
M  V30 1568 1 219 173
M  V30 1569 1 229 208
M  V30 1570 1 229 219
M  V30 1571 1 229 186
M  V30 1572 1 229 152
M  V30 1573 1 229 179
M  V30 1574 1 229 228
M  V30 1575 1 229 218
M  V30 1576 1 229 176
M  V30 1577 1 229 173
M  V30 1578 1 169 104
M  V30 1579 1 169 142
M  V30 1580 1 169 94
M  V30 1581 1 169 84
M  V30 1582 1 169 143
M  V30 1583 1 169 151
M  V30 1584 1 169 152
M  V30 1585 1 169 179
M  V30 1586 1 169 188
M  V30 1587 1 169 74
M  V30 1588 1 169 153
M  V30 1589 1 169 162
M  V30 1590 1 169 161
M  V30 1591 1 169 166
M  V30 1592 1 169 114
M  V30 1593 1 169 103
M  V30 1594 1 169 156
M  V30 1595 1 169 124
M  V30 1596 1 159 248
M  V30 1597 1 159 245
M  V30 1598 1 159 104
M  V30 1599 1 159 144
M  V30 1600 1 159 142
M  V30 1601 1 159 141
M  V30 1602 1 159 94
M  V30 1603 1 159 143
M  V30 1604 1 159 151
M  V30 1605 1 159 98
M  V30 1606 1 159 88
M  V30 1607 1 159 117
M  V30 1608 1 159 146
M  V30 1609 1 159 166
M  V30 1610 1 159 65
M  V30 1611 1 159 114
M  V30 1612 1 159 113
M  V30 1613 1 159 103
M  V30 1614 1 159 112
M  V30 1615 1 159 102
M  V30 1616 1 159 101
M  V30 1617 1 159 169
M  V30 1618 1 159 156
M  V30 1619 1 159 93
M  V30 1620 1 149 104
M  V30 1621 1 149 141
M  V30 1622 1 149 159
M  V30 1623 1 149 98
M  V30 1624 1 149 88
M  V30 1625 1 149 117
M  V30 1626 1 149 107
M  V30 1627 1 149 106
M  V30 1628 1 149 146
M  V30 1629 1 149 85
M  V30 1630 1 149 75
M  V30 1631 1 149 65
M  V30 1632 1 149 114
M  V30 1633 1 149 123
M  V30 1634 1 149 113
M  V30 1635 1 149 103
M  V30 1636 1 149 73
M  V30 1637 1 149 122
M  V30 1638 1 149 112
M  V30 1639 1 149 102
M  V30 1640 1 149 111
M  V30 1641 1 149 101
M  V30 1642 1 149 127
M  V30 1643 1 149 96
M  V30 1644 1 149 156
M  V30 1645 1 149 93
M  V30 1646 1 149 83
M  V30 1647 1 59 138
M  V30 1648 1 59 227
M  V30 1649 1 59 217
M  V30 1650 1 59 36
M  V30 1651 1 59 136
M  V30 1652 1 59 66
M  V30 1653 1 59 56
M  V30 1654 1 59 185
M  V30 1655 1 59 204
M  V30 1656 1 59 194
M  V30 1657 1 59 41
M  V30 1658 1 59 21
M  V30 1659 1 59 51
M  V30 1660 1 69 59
M  V30 1661 1 69 48
M  V30 1662 1 69 38
M  V30 1663 1 69 138
M  V30 1664 1 69 58
M  V30 1665 1 69 227
M  V30 1666 1 69 177
M  V30 1667 1 69 136
M  V30 1668 1 69 56
M  V30 1669 1 69 175
M  V30 1670 1 69 194
M  V30 1671 1 69 184
M  V30 1672 1 69 43
M  V30 1673 1 69 33
M  V30 1674 1 69 23
M  V30 1675 1 69 13
M  V30 1676 1 69 3
M  V30 1677 1 69 32
M  V30 1678 1 69 22
M  V30 1679 1 69 31
M  V30 1680 1 69 51
M  V30 1681 1 79 128
M  V30 1682 1 79 157
M  V30 1683 1 79 126
M  V30 1684 1 79 115
M  V30 1685 1 79 53
M  V30 1686 1 79 131
M  V30 1687 1 79 69
M  V30 1688 1 79 138
M  V30 1689 1 79 68
M  V30 1690 1 79 58
M  V30 1691 1 79 167
M  V30 1692 1 79 177
M  V30 1693 1 79 136
M  V30 1694 1 79 105
M  V30 1695 1 79 145
M  V30 1696 1 79 194
M  V30 1697 1 79 184
M  V30 1698 1 79 174
M  V30 1699 1 79 33
M  V30 1700 1 79 23
M  V30 1701 1 79 32
M  V30 1702 1 79 62
M  V30 1703 1 79 52
M  V30 1704 1 79 51
M  V30 1705 1 89 78
M  V30 1706 1 89 147
M  V30 1707 1 89 157
M  V30 1708 1 89 115
M  V30 1709 1 89 95
M  V30 1710 1 89 164
M  V30 1711 1 89 133
M  V30 1712 1 89 53
M  V30 1713 1 89 132
M  V30 1714 1 89 72
M  V30 1715 1 89 79
M  V30 1716 1 89 68
M  V30 1717 1 89 58
M  V30 1718 1 89 167
M  V30 1719 1 89 105
M  V30 1720 1 89 145
M  V30 1721 1 89 174
M  V30 1722 1 89 33
M  V30 1723 1 89 62
M  V30 1724 1 89 52
M  V30 1725 1 99 88
M  V30 1726 1 99 78
M  V30 1727 1 99 107
M  V30 1728 1 99 157
M  V30 1729 1 99 116
M  V30 1730 1 99 95
M  V30 1731 1 99 85
M  V30 1732 1 99 154
M  V30 1733 1 99 164
M  V30 1734 1 99 133
M  V30 1735 1 99 123
M  V30 1736 1 99 53
M  V30 1737 1 99 132
M  V30 1738 1 99 122
M  V30 1739 1 99 72
M  V30 1740 1 99 121
M  V30 1741 1 99 111
M  V30 1742 1 99 89
M  V30 1743 1 99 68
M  V30 1744 1 99 105
M  V30 1745 1 99 174
M  V30 1746 1 109 99
M  V30 1747 1 109 149
M  V30 1748 1 109 128
M  V30 1749 1 109 98
M  V30 1750 1 109 88
M  V30 1751 1 109 78
M  V30 1752 1 109 117
M  V30 1753 1 109 97
M  V30 1754 1 109 147
M  V30 1755 1 109 116
M  V30 1756 1 109 106
M  V30 1757 1 109 146
M  V30 1758 1 109 125
M  V30 1759 1 109 115
M  V30 1760 1 109 95
M  V30 1761 1 109 85
M  V30 1762 1 109 75
M  V30 1763 1 109 154
M  V30 1764 1 109 164
M  V30 1765 1 109 133
M  V30 1766 1 109 123
M  V30 1767 1 109 73
M  V30 1768 1 109 63
M  V30 1769 1 109 53
M  V30 1770 1 109 132
M  V30 1771 1 109 122
M  V30 1772 1 109 112
M  V30 1773 1 109 72
M  V30 1774 1 109 121
M  V30 1775 1 109 111
M  V30 1776 1 109 101
M  V30 1777 1 109 96
M  V30 1778 1 119 109
M  V30 1779 1 119 128
M  V30 1780 1 119 118
M  V30 1781 1 119 78
M  V30 1782 1 119 107
M  V30 1783 1 119 97
M  V30 1784 1 119 126
M  V30 1785 1 119 116
M  V30 1786 1 119 106
M  V30 1787 1 119 86
M  V30 1788 1 119 76
M  V30 1789 1 119 115
M  V30 1790 1 119 75
M  V30 1791 1 119 73
M  V30 1792 1 119 63
M  V30 1793 1 119 53
M  V30 1794 1 119 132
M  V30 1795 1 119 122
M  V30 1796 1 119 131
M  V30 1797 1 119 121
M  V30 1798 1 119 111
M  V30 1799 1 119 108
M  V30 1800 1 119 87
M  V30 1801 1 119 96
M  V30 1802 1 119 135
M  V30 1803 1 129 119
M  V30 1804 1 129 128
M  V30 1805 1 129 118
M  V30 1806 1 129 97
M  V30 1807 1 129 126
M  V30 1808 1 129 76
M  V30 1809 1 129 125
M  V30 1810 1 129 115
M  V30 1811 1 129 63
M  V30 1812 1 129 53
M  V30 1813 1 129 131
M  V30 1814 1 129 121
M  V30 1815 1 129 79
M  V30 1816 1 129 138
M  V30 1817 1 129 136
M  V30 1818 1 129 66
M  V30 1819 1 129 194
M  V30 1820 1 129 184
M  V30 1821 1 129 174
M  V30 1822 1 129 52
M  V30 1823 1 129 51
M  V30 1824 1 139 129
M  V30 1825 1 139 76
M  V30 1826 1 139 131
M  V30 1827 1 139 59
M  V30 1828 1 139 138
M  V30 1829 1 139 56
M  V30 1830 1 139 204
M  V30 1831 1 139 194
M  V30 1832 1 139 184
M  V30 1833 1 139 31
M  V30 1834 1 139 51
M  V30 1835 1 9 26
M  V30 1836 1 9 16
M  V30 1837 1 9 235
M  V30 1838 1 9 205
M  V30 1839 1 9 1
M  V30 1840 1 19 9
M  V30 1841 1 19 16
M  V30 1842 1 19 235
M  V30 1843 1 19 205
M  V30 1844 1 19 11
M  V30 1845 1 19 1
M  V30 1846 1 29 19
M  V30 1847 1 29 237
M  V30 1848 1 29 217
M  V30 1849 1 29 207
M  V30 1850 1 29 205
M  V30 1851 1 29 234
M  V30 1852 1 29 21
M  V30 1853 1 29 11
M  V30 1854 1 29 1
M  V30 1855 1 39 29
M  V30 1856 1 39 59
M  V30 1857 1 39 217
M  V30 1858 1 39 36
M  V30 1859 1 39 26
M  V30 1860 1 39 205
M  V30 1861 1 39 195
M  V30 1862 1 39 234
M  V30 1863 1 39 41
M  V30 1864 1 39 31
M  V30 1865 1 39 21
M  V30 1866 1 39 11
M  V30 1867 1 39 1
M  V30 1868 1 49 39
M  V30 1869 1 49 9
M  V30 1870 1 49 36
M  V30 1871 1 49 16
M  V30 1872 1 49 205
M  V30 1873 1 49 195
M  V30 1874 1 49 41
M  V30 1875 1 49 1
M  V30 1876 1 249 157
M  V30 1877 1 249 89
M  V30 1878 1 249 28
M  V30 1879 1 249 68
M  V30 1880 1 249 167
M  V30 1881 1 249 145
M  V30 1882 1 249 155
M  V30 1883 1 239 209
M  V30 1884 1 239 236
M  V30 1885 1 239 206
M  V30 1886 1 239 196
M  V30 1887 1 239 193
M  V30 1888 1 239 183
M  V30 1889 1 180 69
M  V30 1890 1 180 59
M  V30 1891 1 180 48
M  V30 1892 1 180 38
M  V30 1893 1 180 227
M  V30 1894 1 180 46
M  V30 1895 1 180 36
M  V30 1896 1 180 136
M  V30 1897 1 180 56
M  V30 1898 1 180 165
M  V30 1899 1 180 225
M  V30 1900 1 180 185
M  V30 1901 1 180 175
M  V30 1902 1 180 43
M  V30 1903 1 180 3
M  V30 1904 1 180 31
M  V30 1905 1 190 180
M  V30 1906 1 190 48
M  V30 1907 1 190 8
M  V30 1908 1 190 227
M  V30 1909 1 190 46
M  V30 1910 1 190 225
M  V30 1911 1 190 215
M  V30 1912 1 190 175
M  V30 1913 1 190 13
M  V30 1914 1 190 3
M  V30 1915 1 190 22
M  V30 1916 1 200 190
M  V30 1917 1 200 48
M  V30 1918 1 200 18
M  V30 1919 1 200 225
M  V30 1920 1 200 13
M  V30 1921 1 200 3
M  V30 1922 1 200 22
M  V30 1923 1 210 200
M  V30 1924 1 210 38
M  V30 1925 1 210 28
M  V30 1926 1 210 18
M  V30 1927 1 210 8
M  V30 1928 1 210 3
M  V30 1929 1 220 210
M  V30 1930 1 220 38
M  V30 1931 1 220 28
M  V30 1932 1 220 167
M  V30 1933 1 220 155
M  V30 1934 1 220 165
M  V30 1935 1 220 43
M  V30 1936 1 220 3
M  V30 1937 1 230 220
M  V30 1938 1 230 180
M  V30 1939 1 230 69
M  V30 1940 1 230 38
M  V30 1941 1 230 58
M  V30 1942 1 230 227
M  V30 1943 1 230 136
M  V30 1944 1 230 155
M  V30 1945 1 230 165
M  V30 1946 1 230 175
M  V30 1947 1 230 33
M  V30 1948 1 230 3
M  V30 1949 1 170 180
M  V30 1950 1 170 39
M  V30 1951 1 170 59
M  V30 1952 1 170 227
M  V30 1953 1 170 36
M  V30 1954 1 170 56
M  V30 1955 1 170 195
M  V30 1956 1 170 175
M  V30 1957 1 170 194
M  V30 1958 1 170 41
M  V30 1959 1 170 31
M  V30 1960 1 160 170
M  V30 1961 1 160 39
M  V30 1962 1 160 139
M  V30 1963 1 160 59
M  V30 1964 1 160 217
M  V30 1965 1 160 36
M  V30 1966 1 160 66
M  V30 1967 1 160 56
M  V30 1968 1 160 195
M  V30 1969 1 160 234
M  V30 1970 1 160 204
M  V30 1971 1 160 194
M  V30 1972 1 160 41
M  V30 1973 1 160 31
M  V30 1974 1 160 21
M  V30 1975 1 150 129
M  V30 1976 1 150 76
M  V30 1977 1 150 160
M  V30 1978 1 150 139
M  V30 1979 1 150 59
M  V30 1980 1 150 138
M  V30 1981 1 150 66
M  V30 1982 1 150 56
M  V30 1983 1 150 234
M  V30 1984 1 150 204
M  V30 1985 1 150 194
M  V30 1986 1 150 31
M  V30 1987 1 150 21
M  V30 1988 1 150 51
M  V30 1989 1 150 214
M  V30 1990 1 60 168
M  V30 1991 1 60 45
M  V30 1992 1 60 148
M  V30 1993 1 60 158
M  V30 1994 1 60 137
M  V30 1995 1 60 127
M  V30 1996 1 60 77
M  V30 1997 1 60 67
M  V30 1998 1 60 57
M  V30 1999 1 60 35
M  V30 2000 1 60 25
M  V30 2001 1 60 55
M  V30 2002 1 60 134
M  V30 2003 1 60 243
M  V30 2004 1 60 83
M  V30 2005 1 60 192
M  V30 2006 1 60 182
M  V30 2007 1 60 172
M  V30 2008 1 60 221
M  V30 2009 1 60 211
M  V30 2010 1 70 98
M  V30 2011 1 70 117
M  V30 2012 1 70 65
M  V30 2013 1 70 114
M  V30 2014 1 70 60
M  V30 2015 1 70 108
M  V30 2016 1 70 148
M  V30 2017 1 70 137
M  V30 2018 1 70 77
M  V30 2019 1 70 96
M  V30 2020 1 70 35
M  V30 2021 1 70 55
M  V30 2022 1 70 134
M  V30 2023 1 70 124
M  V30 2024 1 70 243
M  V30 2025 1 70 93
M  V30 2026 1 70 83
M  V30 2027 1 70 182
M  V30 2028 1 70 221
M  V30 2029 1 80 119
M  V30 2030 1 80 118
M  V30 2031 1 80 98
M  V30 2032 1 80 117
M  V30 2033 1 80 107
M  V30 2034 1 80 97
M  V30 2035 1 80 106
M  V30 2036 1 80 86
M  V30 2037 1 80 125
M  V30 2038 1 80 75
M  V30 2039 1 80 65
M  V30 2040 1 80 73
M  V30 2041 1 80 70
M  V30 2042 1 80 148
M  V30 2043 1 80 127
M  V30 2044 1 80 87
M  V30 2045 1 80 77
M  V30 2046 1 80 135
M  V30 2047 1 80 55
M  V30 2048 1 80 243
M  V30 2049 1 80 93
M  V30 2050 1 80 83
M  V30 2051 1 90 119
M  V30 2052 1 90 109
M  V30 2053 1 90 149
M  V30 2054 1 90 128
M  V30 2055 1 90 118
M  V30 2056 1 90 98
M  V30 2057 1 90 88
M  V30 2058 1 90 78
M  V30 2059 1 90 117
M  V30 2060 1 90 97
M  V30 2061 1 90 147
M  V30 2062 1 90 116
M  V30 2063 1 90 106
M  V30 2064 1 90 86
M  V30 2065 1 90 125
M  V30 2066 1 90 115
M  V30 2067 1 90 85
M  V30 2068 1 90 75
M  V30 2069 1 90 123
M  V30 2070 1 90 63
M  V30 2071 1 90 53
M  V30 2072 1 90 132
M  V30 2073 1 90 122
M  V30 2074 1 90 112
M  V30 2075 1 90 131
M  V30 2076 1 90 121
M  V30 2077 1 90 111
M  V30 2078 1 90 80
M  V30 2079 1 90 108
M  V30 2080 1 90 96
M  V30 2081 1 90 135
M  V30 2082 1 90 83
M  V30 2083 1 100 90
M  V30 2084 1 100 129
M  V30 2085 1 100 119
M  V30 2086 1 100 109
M  V30 2087 1 100 118
M  V30 2088 1 100 78
M  V30 2089 1 100 107
M  V30 2090 1 100 97
M  V30 2091 1 100 147
M  V30 2092 1 100 126
M  V30 2093 1 100 116
M  V30 2094 1 100 76
M  V30 2095 1 100 125
M  V30 2096 1 100 73
M  V30 2097 1 100 63
M  V30 2098 1 100 53
M  V30 2099 1 100 132
M  V30 2100 1 100 122
M  V30 2101 1 100 131
M  V30 2102 1 100 121
M  V30 2103 1 100 79
M  V30 2104 1 100 138
M  V30 2105 1 100 105
M  V30 2106 1 100 184
M  V30 2107 1 100 174
M  V30 2108 1 100 52
M  V30 2109 1 100 51
M  V30 2110 1 110 100
M  V30 2111 1 110 129
M  V30 2112 1 110 119
M  V30 2113 1 110 128
M  V30 2114 1 110 118
M  V30 2115 1 110 97
M  V30 2116 1 110 126
M  V30 2117 1 110 86
M  V30 2118 1 110 76
M  V30 2119 1 110 125
M  V30 2120 1 110 115
M  V30 2121 1 110 63
M  V30 2122 1 110 131
M  V30 2123 1 110 150
M  V30 2124 1 110 139
M  V30 2125 1 110 138
M  V30 2126 1 110 66
M  V30 2127 1 110 194
M  V30 2128 1 110 184
M  V30 2129 1 110 51
M  V30 2130 1 120 110
M  V30 2131 1 120 118
M  V30 2132 1 120 97
M  V30 2133 1 120 86
M  V30 2134 1 120 76
M  V30 2135 1 120 247
M  V30 2136 1 120 87
M  V30 2137 1 120 246
M  V30 2138 1 120 135
M  V30 2139 1 130 118
M  V30 2140 1 130 97
M  V30 2141 1 130 86
M  V30 2142 1 130 120
M  V30 2143 1 130 80
M  V30 2144 1 130 108
M  V30 2145 1 130 148
M  V30 2146 1 130 247
M  V30 2147 1 130 87
M  V30 2148 1 130 77
M  V30 2149 1 130 246
M  V30 2150 1 130 96
M  V30 2151 1 130 135
M  V30 2152 1 130 55
M  V30 2153 1 130 243
M  V30 2154 1 130 83
M  V30 2155 1 140 130
M  V30 2156 1 140 60
M  V30 2157 1 140 148
M  V30 2158 1 140 158
M  V30 2159 1 140 87
M  V30 2160 1 140 77
M  V30 2161 1 140 67
M  V30 2162 1 140 246
M  V30 2163 1 140 35
M  V30 2164 1 140 25
M  V30 2165 1 140 55
M  V30 2166 1 140 243
M  V30 2167 1 140 202
M  V30 2168 1 140 192
M  V30 2169 1 140 211
M  V30 2170 1 10 47
M  V30 2171 1 10 37
M  V30 2172 1 10 17
M  V30 2173 1 10 7
M  V30 2174 1 10 236
M  V30 2175 1 10 216
M  V30 2176 1 10 206
M  V30 2177 1 10 44
M  V30 2178 1 10 34
M  V30 2179 1 10 223
M  V30 2180 1 10 213
M  V30 2181 1 10 203
M  V30 2182 1 10 222
M  V30 2183 1 10 191
M  V30 2184 1 10 181
M  V30 2185 1 20 10
M  V30 2186 1 20 37
M  V30 2187 1 20 27
M  V30 2188 1 20 17
M  V30 2189 1 20 7
M  V30 2190 1 20 236
M  V30 2191 1 20 216
M  V30 2192 1 20 5
M  V30 2193 1 20 44
M  V30 2194 1 20 34
M  V30 2195 1 20 24
M  V30 2196 1 20 14
M  V30 2197 1 20 4
M  V30 2198 1 20 233
M  V30 2199 1 20 213
M  V30 2200 1 20 203
M  V30 2201 1 20 222
M  V30 2202 1 20 212
M  V30 2203 1 20 231
M  V30 2204 1 20 201
M  V30 2205 1 20 191
M  V30 2206 1 30 20
M  V30 2207 1 30 168
M  V30 2208 1 30 37
M  V30 2209 1 30 27
M  V30 2210 1 30 216
M  V30 2211 1 30 45
M  V30 2212 1 30 34
M  V30 2213 1 30 24
M  V30 2214 1 30 222
M  V30 2215 1 30 231
M  V30 2216 1 30 201
M  V30 2217 1 30 191
M  V30 2218 1 30 15
M  V30 2219 1 30 202
M  V30 2220 1 30 211
M  V30 2221 1 40 30
M  V30 2222 1 40 199
M  V30 2223 1 40 189
M  V30 2224 1 40 37
M  V30 2225 1 40 226
M  V30 2226 1 40 216
M  V30 2227 1 40 5
M  V30 2228 1 40 34
M  V30 2229 1 40 54
M  V30 2230 1 40 222
M  V30 2231 1 40 212
M  V30 2232 1 40 201
M  V30 2233 1 40 191
M  V30 2234 1 40 60
M  V30 2235 1 40 158
M  V30 2236 1 40 67
M  V30 2237 1 40 57
M  V30 2238 1 40 35
M  V30 2239 1 40 134
M  V30 2240 1 40 202
M  V30 2241 1 40 182
M  V30 2242 1 40 172
M  V30 2243 1 40 221
M  V30 2244 1 40 211
M  V30 2245 1 50 40
M  V30 2246 1 50 10
M  V30 2247 1 50 199
M  V30 2248 1 50 189
M  V30 2249 1 50 168
M  V30 2250 1 50 228
M  V30 2251 1 50 178
M  V30 2252 1 50 47
M  V30 2253 1 50 37
M  V30 2254 1 50 226
M  V30 2255 1 50 216
M  V30 2256 1 50 206
M  V30 2257 1 50 45
M  V30 2258 1 50 34
M  V30 2259 1 50 64
M  V30 2260 1 50 54
M  V30 2261 1 50 223
M  V30 2262 1 50 213
M  V30 2263 1 50 173
M  V30 2264 1 50 222
M  V30 2265 1 50 191
M  V30 2266 1 50 181
M  V30 2267 1 50 171
M  V30 2268 1 50 57
M  V30 2269 1 50 134
M  V30 2270 1 50 172
M  V30 2271 1 250 248
M  V30 2272 1 250 245
M  V30 2273 1 250 104
M  V30 2274 1 250 144
M  V30 2275 1 250 90
M  V30 2276 1 250 109
M  V30 2277 1 250 99
M  V30 2278 1 250 149
M  V30 2279 1 250 98
M  V30 2280 1 250 88
M  V30 2281 1 250 78
M  V30 2282 1 250 117
M  V30 2283 1 250 107
M  V30 2284 1 250 147
M  V30 2285 1 250 116
M  V30 2286 1 250 106
M  V30 2287 1 250 146
M  V30 2288 1 250 95
M  V30 2289 1 250 85
M  V30 2290 1 250 75
M  V30 2291 1 250 154
M  V30 2292 1 250 133
M  V30 2293 1 250 113
M  V30 2294 1 250 73
M  V30 2295 1 250 122
M  V30 2296 1 250 112
M  V30 2297 1 250 102
M  V30 2298 1 250 72
M  V30 2299 1 250 121
M  V30 2300 1 250 111
M  V30 2301 1 250 101
M  V30 2302 1 240 210
M  V30 2303 1 240 28
M  V30 2304 1 240 18
M  V30 END BOND
M  V30 END CTAB
M  END
>  <vina_affinity>  (1) 
-7.421

>  <vina_rmsd_lb>  (1) 
2.413

>  <vina_rmsd_ub>  (1) 
8.207

$$$$
